* NGSPICE file created from top_astria.ext - technology: sky130A

* Black-box entry subcircuit for sky130_fd_sc_hd__decap_12 abstract view
.subckt sky130_fd_sc_hd__decap_12 VGND VNB VPB VPWR
.ends

* Black-box entry subcircuit for sky130_fd_sc_hd__tapvpwrvgnd_1 abstract view
.subckt sky130_fd_sc_hd__tapvpwrvgnd_1 VGND VPWR
.ends

* Black-box entry subcircuit for sky130_fd_sc_hd__decap_8 abstract view
.subckt sky130_fd_sc_hd__decap_8 VGND VNB VPB VPWR
.ends

* Black-box entry subcircuit for sky130_fd_sc_hd__fill_1 abstract view
.subckt sky130_fd_sc_hd__fill_1 VGND VNB VPB VPWR
.ends

* Black-box entry subcircuit for sky130_fd_sc_hd__fill_2 abstract view
.subckt sky130_fd_sc_hd__fill_2 VGND VNB VPB VPWR
.ends

* Black-box entry subcircuit for sky130_fd_sc_hd__decap_4 abstract view
.subckt sky130_fd_sc_hd__decap_4 VGND VNB VPB VPWR
.ends

* Black-box entry subcircuit for sky130_fd_sc_hd__dfxtp_4 abstract view
.subckt sky130_fd_sc_hd__dfxtp_4 CLK D VGND VNB VPB VPWR Q
.ends

* Black-box entry subcircuit for sky130_fd_sc_hd__decap_3 abstract view
.subckt sky130_fd_sc_hd__decap_3 VGND VNB VPB VPWR
.ends

* Black-box entry subcircuit for sky130_fd_sc_hd__conb_1 abstract view
.subckt sky130_fd_sc_hd__conb_1 VGND VNB VPB VPWR HI LO
.ends

* Black-box entry subcircuit for sky130_fd_sc_hd__buf_2 abstract view
.subckt sky130_fd_sc_hd__buf_2 A VGND VNB VPB VPWR X
.ends

* Black-box entry subcircuit for sky130_fd_sc_hd__decap_6 abstract view
.subckt sky130_fd_sc_hd__decap_6 VGND VNB VPB VPWR
.ends

* Black-box entry subcircuit for sky130_fd_sc_hd__nor4_1 abstract view
.subckt sky130_fd_sc_hd__nor4_1 A B C D VGND VNB VPB VPWR Y
.ends

* Black-box entry subcircuit for sky130_fd_sc_hd__diode_2 abstract view
.subckt sky130_fd_sc_hd__diode_2 DIODE VGND VNB VPB VPWR
.ends

* Black-box entry subcircuit for sky130_fd_sc_hd__o22a_4 abstract view
.subckt sky130_fd_sc_hd__o22a_4 A1 A2 B1 B2 VGND VNB VPB VPWR X
.ends

* Black-box entry subcircuit for sky130_fd_sc_hd__clkbuf_16 abstract view
.subckt sky130_fd_sc_hd__clkbuf_16 A VGND VNB VPB VPWR X
.ends

* Black-box entry subcircuit for sky130_fd_sc_hd__inv_2 abstract view
.subckt sky130_fd_sc_hd__inv_2 A VGND VNB VPB VPWR Y
.ends

* Black-box entry subcircuit for sky130_fd_sc_hd__clkbuf_1 abstract view
.subckt sky130_fd_sc_hd__clkbuf_1 A VGND VNB VPB VPWR X
.ends

* Black-box entry subcircuit for sky130_fd_sc_hd__or4_4 abstract view
.subckt sky130_fd_sc_hd__or4_4 A B C D VGND VNB VPB VPWR X
.ends

.subckt top_astria analog_io[0] analog_io[10] analog_io[11] analog_io[12] analog_io[13]
+ analog_io[14] analog_io[15] analog_io[16] analog_io[17] analog_io[18] analog_io[19]
+ analog_io[1] analog_io[20] analog_io[21] analog_io[22] analog_io[23] analog_io[24]
+ analog_io[25] analog_io[26] analog_io[27] analog_io[28] analog_io[29] analog_io[2]
+ analog_io[30] analog_io[3] analog_io[4] analog_io[5] analog_io[6] analog_io[7] analog_io[8]
+ analog_io[9] io_in[0] io_in[10] io_in[11] io_in[12] io_in[13] io_in[14] io_in[15]
+ io_in[16] io_in[17] io_in[18] io_in[19] io_in[1] io_in[20] io_in[21] io_in[22] io_in[23]
+ io_in[24] io_in[25] io_in[26] io_in[27] io_in[28] io_in[29] io_in[2] io_in[30] io_in[31]
+ io_in[32] io_in[33] io_in[34] io_in[35] io_in[36] io_in[37] io_in[3] io_in[4] io_in[5]
+ io_in[6] io_in[7] io_in[8] io_in[9] io_oeb[0] io_oeb[10] io_oeb[11] io_oeb[12] io_oeb[13]
+ io_oeb[14] io_oeb[15] io_oeb[16] io_oeb[17] io_oeb[18] io_oeb[19] io_oeb[1] io_oeb[20]
+ io_oeb[21] io_oeb[22] io_oeb[23] io_oeb[24] io_oeb[25] io_oeb[26] io_oeb[27] io_oeb[28]
+ io_oeb[29] io_oeb[2] io_oeb[30] io_oeb[31] io_oeb[32] io_oeb[33] io_oeb[34] io_oeb[35]
+ io_oeb[36] io_oeb[37] io_oeb[3] io_oeb[4] io_oeb[5] io_oeb[6] io_oeb[7] io_oeb[8]
+ io_oeb[9] io_out[0] io_out[10] io_out[11] io_out[12] io_out[13] io_out[14] io_out[15]
+ io_out[16] io_out[17] io_out[18] io_out[19] io_out[1] io_out[20] io_out[21] io_out[22]
+ io_out[23] io_out[24] io_out[25] io_out[26] io_out[27] io_out[28] io_out[29] io_out[2]
+ io_out[30] io_out[31] io_out[32] io_out[33] io_out[34] io_out[35] io_out[36] io_out[37]
+ io_out[3] io_out[4] io_out[5] io_out[6] io_out[7] io_out[8] io_out[9] la_data_in[0]
+ la_data_in[100] la_data_in[101] la_data_in[102] la_data_in[103] la_data_in[104]
+ la_data_in[105] la_data_in[106] la_data_in[107] la_data_in[108] la_data_in[109]
+ la_data_in[10] la_data_in[110] la_data_in[111] la_data_in[112] la_data_in[113] la_data_in[114]
+ la_data_in[115] la_data_in[116] la_data_in[117] la_data_in[118] la_data_in[119]
+ la_data_in[11] la_data_in[120] la_data_in[121] la_data_in[122] la_data_in[123] la_data_in[124]
+ la_data_in[125] la_data_in[126] la_data_in[127] la_data_in[12] la_data_in[13] la_data_in[14]
+ la_data_in[15] la_data_in[16] la_data_in[17] la_data_in[18] la_data_in[19] la_data_in[1]
+ la_data_in[20] la_data_in[21] la_data_in[22] la_data_in[23] la_data_in[24] la_data_in[25]
+ la_data_in[26] la_data_in[27] la_data_in[28] la_data_in[29] la_data_in[2] la_data_in[30]
+ la_data_in[31] la_data_in[32] la_data_in[33] la_data_in[34] la_data_in[35] la_data_in[36]
+ la_data_in[37] la_data_in[38] la_data_in[39] la_data_in[3] la_data_in[40] la_data_in[41]
+ la_data_in[42] la_data_in[43] la_data_in[44] la_data_in[45] la_data_in[46] la_data_in[47]
+ la_data_in[48] la_data_in[49] la_data_in[4] la_data_in[50] la_data_in[51] la_data_in[52]
+ la_data_in[53] la_data_in[54] la_data_in[55] la_data_in[56] la_data_in[57] la_data_in[58]
+ la_data_in[59] la_data_in[5] la_data_in[60] la_data_in[61] la_data_in[62] la_data_in[63]
+ la_data_in[64] la_data_in[65] la_data_in[66] la_data_in[67] la_data_in[68] la_data_in[69]
+ la_data_in[6] la_data_in[70] la_data_in[71] la_data_in[72] la_data_in[73] la_data_in[74]
+ la_data_in[75] la_data_in[76] la_data_in[77] la_data_in[78] la_data_in[79] la_data_in[7]
+ la_data_in[80] la_data_in[81] la_data_in[82] la_data_in[83] la_data_in[84] la_data_in[85]
+ la_data_in[86] la_data_in[87] la_data_in[88] la_data_in[89] la_data_in[8] la_data_in[90]
+ la_data_in[91] la_data_in[92] la_data_in[93] la_data_in[94] la_data_in[95] la_data_in[96]
+ la_data_in[97] la_data_in[98] la_data_in[99] la_data_in[9] la_data_out[0] la_data_out[100]
+ la_data_out[101] la_data_out[102] la_data_out[103] la_data_out[104] la_data_out[105]
+ la_data_out[106] la_data_out[107] la_data_out[108] la_data_out[109] la_data_out[10]
+ la_data_out[110] la_data_out[111] la_data_out[112] la_data_out[113] la_data_out[114]
+ la_data_out[115] la_data_out[116] la_data_out[117] la_data_out[118] la_data_out[119]
+ la_data_out[11] la_data_out[120] la_data_out[121] la_data_out[122] la_data_out[123]
+ la_data_out[124] la_data_out[125] la_data_out[126] la_data_out[127] la_data_out[12]
+ la_data_out[13] la_data_out[14] la_data_out[15] la_data_out[16] la_data_out[17]
+ la_data_out[18] la_data_out[19] la_data_out[1] la_data_out[20] la_data_out[21] la_data_out[22]
+ la_data_out[23] la_data_out[24] la_data_out[25] la_data_out[26] la_data_out[27]
+ la_data_out[28] la_data_out[29] la_data_out[2] la_data_out[30] la_data_out[31] la_data_out[32]
+ la_data_out[33] la_data_out[34] la_data_out[35] la_data_out[36] la_data_out[37]
+ la_data_out[38] la_data_out[39] la_data_out[3] la_data_out[40] la_data_out[41] la_data_out[42]
+ la_data_out[43] la_data_out[44] la_data_out[45] la_data_out[46] la_data_out[47]
+ la_data_out[48] la_data_out[49] la_data_out[4] la_data_out[50] la_data_out[51] la_data_out[52]
+ la_data_out[53] la_data_out[54] la_data_out[55] la_data_out[56] la_data_out[57]
+ la_data_out[58] la_data_out[59] la_data_out[5] la_data_out[60] la_data_out[61] la_data_out[62]
+ la_data_out[63] la_data_out[64] la_data_out[65] la_data_out[66] la_data_out[67]
+ la_data_out[68] la_data_out[69] la_data_out[6] la_data_out[70] la_data_out[71] la_data_out[72]
+ la_data_out[73] la_data_out[74] la_data_out[75] la_data_out[76] la_data_out[77]
+ la_data_out[78] la_data_out[79] la_data_out[7] la_data_out[80] la_data_out[81] la_data_out[82]
+ la_data_out[83] la_data_out[84] la_data_out[85] la_data_out[86] la_data_out[87]
+ la_data_out[88] la_data_out[89] la_data_out[8] la_data_out[90] la_data_out[91] la_data_out[92]
+ la_data_out[93] la_data_out[94] la_data_out[95] la_data_out[96] la_data_out[97]
+ la_data_out[98] la_data_out[99] la_data_out[9] la_oen[0] la_oen[100] la_oen[101]
+ la_oen[102] la_oen[103] la_oen[104] la_oen[105] la_oen[106] la_oen[107] la_oen[108]
+ la_oen[109] la_oen[10] la_oen[110] la_oen[111] la_oen[112] la_oen[113] la_oen[114]
+ la_oen[115] la_oen[116] la_oen[117] la_oen[118] la_oen[119] la_oen[11] la_oen[120]
+ la_oen[121] la_oen[122] la_oen[123] la_oen[124] la_oen[125] la_oen[126] la_oen[127]
+ la_oen[12] la_oen[13] la_oen[14] la_oen[15] la_oen[16] la_oen[17] la_oen[18] la_oen[19]
+ la_oen[1] la_oen[20] la_oen[21] la_oen[22] la_oen[23] la_oen[24] la_oen[25] la_oen[26]
+ la_oen[27] la_oen[28] la_oen[29] la_oen[2] la_oen[30] la_oen[31] la_oen[32] la_oen[33]
+ la_oen[34] la_oen[35] la_oen[36] la_oen[37] la_oen[38] la_oen[39] la_oen[3] la_oen[40]
+ la_oen[41] la_oen[42] la_oen[43] la_oen[44] la_oen[45] la_oen[46] la_oen[47] la_oen[48]
+ la_oen[49] la_oen[4] la_oen[50] la_oen[51] la_oen[52] la_oen[53] la_oen[54] la_oen[55]
+ la_oen[56] la_oen[57] la_oen[58] la_oen[59] la_oen[5] la_oen[60] la_oen[61] la_oen[62]
+ la_oen[63] la_oen[64] la_oen[65] la_oen[66] la_oen[67] la_oen[68] la_oen[69] la_oen[6]
+ la_oen[70] la_oen[71] la_oen[72] la_oen[73] la_oen[74] la_oen[75] la_oen[76] la_oen[77]
+ la_oen[78] la_oen[79] la_oen[7] la_oen[80] la_oen[81] la_oen[82] la_oen[83] la_oen[84]
+ la_oen[85] la_oen[86] la_oen[87] la_oen[88] la_oen[89] la_oen[8] la_oen[90] la_oen[91]
+ la_oen[92] la_oen[93] la_oen[94] la_oen[95] la_oen[96] la_oen[97] la_oen[98] la_oen[99]
+ la_oen[9] wb_clk_i wb_rst_i wbs_ack_o wbs_adr_i[0] wbs_adr_i[10] wbs_adr_i[11] wbs_adr_i[12]
+ wbs_adr_i[13] wbs_adr_i[14] wbs_adr_i[15] wbs_adr_i[16] wbs_adr_i[17] wbs_adr_i[18]
+ wbs_adr_i[19] wbs_adr_i[1] wbs_adr_i[20] wbs_adr_i[21] wbs_adr_i[22] wbs_adr_i[23]
+ wbs_adr_i[24] wbs_adr_i[25] wbs_adr_i[26] wbs_adr_i[27] wbs_adr_i[28] wbs_adr_i[29]
+ wbs_adr_i[2] wbs_adr_i[30] wbs_adr_i[31] wbs_adr_i[3] wbs_adr_i[4] wbs_adr_i[5]
+ wbs_adr_i[6] wbs_adr_i[7] wbs_adr_i[8] wbs_adr_i[9] wbs_cyc_i wbs_dat_i[0] wbs_dat_i[10]
+ wbs_dat_i[11] wbs_dat_i[12] wbs_dat_i[13] wbs_dat_i[14] wbs_dat_i[15] wbs_dat_i[16]
+ wbs_dat_i[17] wbs_dat_i[18] wbs_dat_i[19] wbs_dat_i[1] wbs_dat_i[20] wbs_dat_i[21]
+ wbs_dat_i[22] wbs_dat_i[23] wbs_dat_i[24] wbs_dat_i[25] wbs_dat_i[26] wbs_dat_i[27]
+ wbs_dat_i[28] wbs_dat_i[29] wbs_dat_i[2] wbs_dat_i[30] wbs_dat_i[31] wbs_dat_i[3]
+ wbs_dat_i[4] wbs_dat_i[5] wbs_dat_i[6] wbs_dat_i[7] wbs_dat_i[8] wbs_dat_i[9] wbs_dat_o[0]
+ wbs_dat_o[10] wbs_dat_o[11] wbs_dat_o[12] wbs_dat_o[13] wbs_dat_o[14] wbs_dat_o[15]
+ wbs_dat_o[16] wbs_dat_o[17] wbs_dat_o[18] wbs_dat_o[19] wbs_dat_o[1] wbs_dat_o[20]
+ wbs_dat_o[21] wbs_dat_o[22] wbs_dat_o[23] wbs_dat_o[24] wbs_dat_o[25] wbs_dat_o[26]
+ wbs_dat_o[27] wbs_dat_o[28] wbs_dat_o[29] wbs_dat_o[2] wbs_dat_o[30] wbs_dat_o[31]
+ wbs_dat_o[3] wbs_dat_o[4] wbs_dat_o[5] wbs_dat_o[6] wbs_dat_o[7] wbs_dat_o[8] wbs_dat_o[9]
+ wbs_sel_i[0] wbs_sel_i[1] wbs_sel_i[2] wbs_sel_i[3] wbs_stb_i wbs_we_i VPWR VGND
XFILLER_234_1081 VGND VGND VPWR VPWR sky130_fd_sc_hd__decap_12
XFILLER_79_391 VGND VGND VPWR VPWR sky130_fd_sc_hd__decap_12
XFILLER_210_1508 VGND VGND VPWR VPWR sky130_fd_sc_hd__decap_12
XFILLER_80_1276 VGND VGND VPWR VPWR sky130_fd_sc_hd__decap_12
XFILLER_269_1111 VGND VGND VPWR VPWR sky130_fd_sc_hd__decap_12
XFILLER_283_952 VGND VGND VPWR VPWR sky130_fd_sc_hd__decap_12
XFILLER_94_361 VGND VGND VPWR VPWR sky130_fd_sc_hd__decap_12
XFILLER_67_586 VGND VGND VPWR VPWR sky130_fd_sc_hd__decap_12
XFILLER_27_428 VGND VGND VPWR VPWR sky130_fd_sc_hd__decap_12
XFILLER_227_367 VGND VGND VPWR VPWR sky130_fd_sc_hd__decap_12
XFILLER_23_1672 VGND VGND VPWR VPWR sky130_fd_sc_hd__decap_12
XFILLER_223_98 VGND VGND VPWR VPWR sky130_fd_sc_hd__decap_12
XFILLER_110_1642 VGND VGND VPWR VPWR sky130_fd_sc_hd__decap_12
XFILLER_282_484 VGND VGND VPWR VPWR sky130_fd_sc_hd__decap_12
XFILLER_199_208 VGND VGND VPWR VPWR sky130_fd_sc_hd__decap_12
XFILLER_82_556 VGND VGND VPWR VPWR sky130_fd_sc_hd__decap_12
XFILLER_208_581 VGND VGND VPWR VPWR sky130_fd_sc_hd__decap_12
XFILLER_242_337 VGND VGND VPWR VPWR sky130_fd_sc_hd__decap_12
XPHY_3109 VGND VPWR sky130_fd_sc_hd__tapvpwrvgnd_1
XFILLER_39_1123 VGND VGND VPWR VPWR sky130_fd_sc_hd__decap_12
XFILLER_36_995 VGND VGND VPWR VPWR sky130_fd_sc_hd__decap_12
XFILLER_243_1306 VGND VGND VPWR VPWR sky130_fd_sc_hd__decap_12
XFILLER_63_781 VGND VGND VPWR VPWR sky130_fd_sc_hd__decap_12
XFILLER_93_1648 VGND VGND VPWR VPWR sky130_fd_sc_hd__decap_12
XFILLER_223_562 VGND VGND VPWR VPWR sky130_fd_sc_hd__decap_12
XFILLER_23_623 VGND VGND VPWR VPWR sky130_fd_sc_hd__decap_12
XPHY_2408 VGND VPWR sky130_fd_sc_hd__tapvpwrvgnd_1
XPHY_2419 VGND VPWR sky130_fd_sc_hd__tapvpwrvgnd_1
XFILLER_180_1618 VGND VGND VPWR VPWR sky130_fd_sc_hd__decap_12
XFILLER_208_1459 VGND VGND VPWR VPWR sky130_fd_sc_hd__decap_12
XFILLER_195_403 VGND VGND VPWR VPWR sky130_fd_sc_hd__decap_12
XFILLER_168_617 VGND VGND VPWR VPWR sky130_fd_sc_hd__decap_12
XPHY_1707 VGND VPWR sky130_fd_sc_hd__tapvpwrvgnd_1
XFILLER_74_1069 VGND VGND VPWR VPWR sky130_fd_sc_hd__decap_12
XFILLER_260_1642 VGND VGND VPWR VPWR sky130_fd_sc_hd__decap_12
XFILLER_211_757 VGND VGND VPWR VPWR sky130_fd_sc_hd__decap_12
XFILLER_11_818 VGND VGND VPWR VPWR sky130_fd_sc_hd__decap_12
XPHY_1718 VGND VPWR sky130_fd_sc_hd__tapvpwrvgnd_1
XFILLER_196_959 VGND VGND VPWR VPWR sky130_fd_sc_hd__decap_12
XFILLER_22_166 VGND VGND VPWR VPWR sky130_fd_sc_hd__decap_12
XPHY_1729 VGND VPWR sky130_fd_sc_hd__tapvpwrvgnd_1
XFILLER_149_842 VGND VGND VPWR VPWR sky130_fd_sc_hd__decap_12
XFILLER_143_1440 VGND VGND VPWR VPWR sky130_fd_sc_hd__decap_12
XFILLER_17_1465 VGND VGND VPWR VPWR sky130_fd_sc_hd__decap_12
XFILLER_10_328 VGND VGND VPWR VPWR sky130_fd_sc_hd__decap_8
XFILLER_241_1074 VGND VGND VPWR VPWR sky130_fd_sc_hd__decap_12
XFILLER_108_1593 VGND VGND VPWR VPWR sky130_fd_sc_hd__decap_12
XFILLER_13_1318 VGND VGND VPWR VPWR sky130_fd_sc_hd__decap_12
XFILLER_104_1435 VGND VGND VPWR VPWR sky130_fd_sc_hd__decap_12
XFILLER_164_812 VGND VGND VPWR VPWR sky130_fd_sc_hd__decap_12
XFILLER_148_385 VGND VGND VPWR VPWR sky130_fd_sc_hd__decap_12
XFILLER_202_1069 VGND VGND VPWR VPWR sky130_fd_sc_hd__decap_12
XFILLER_175_171 VGND VGND VPWR VPWR sky130_fd_sc_hd__decap_12
XFILLER_108_227 VGND VGND VPWR VPWR sky130_fd_sc_hd__decap_12
XFILLER_30_1654 VGND VGND VPWR VPWR sky130_fd_sc_hd__decap_12
XFILLER_190_141 VGND VGND VPWR VPWR sky130_fd_sc_hd__decap_12
XFILLER_178_1569 VGND VGND VPWR VPWR sky130_fd_sc_hd__decap_12
XFILLER_123_208 VGND VGND VPWR VPWR sky130_fd_sc_hd__decap_12
XFILLER_258_1593 VGND VGND VPWR VPWR sky130_fd_sc_hd__decap_12
XFILLER_11_1086 VGND VGND VPWR VPWR sky130_fd_sc_hd__decap_12
XFILLER_117_794 VGND VGND VPWR VPWR sky130_fd_sc_hd__decap_12
XFILLER_254_1435 VGND VGND VPWR VPWR sky130_fd_sc_hd__decap_12
XFILLER_46_1105 VGND VGND VPWR VPWR sky130_fd_sc_hd__decap_12
XFILLER_104_422 VGND VGND VPWR VPWR sky130_fd_sc_hd__decap_12
XFILLER_137_1233 VGND VGND VPWR VPWR sky130_fd_sc_hd__decap_12
XFILLER_77_15 VGND VGND VPWR VPWR sky130_fd_sc_hd__decap_12
XFILLER_132_764 VGND VGND VPWR VPWR sky130_fd_sc_hd__decap_12
XFILLER_105_989 VGND VGND VPWR VPWR sky130_fd_sc_hd__decap_12
XFILLER_232_1711 VGND VGND VPWR VPWR sky130_fd_sc_hd__fill_1
XFILLER_77_306 VGND VGND VPWR VPWR sky130_fd_sc_hd__decap_12
XFILLER_277_245 VGND VGND VPWR VPWR sky130_fd_sc_hd__decap_12
XFILLER_77_59 VGND VGND VPWR VPWR sky130_fd_sc_hd__fill_2
XFILLER_63_1452 VGND VGND VPWR VPWR sky130_fd_sc_hd__decap_12
XFILLER_58_520 VGND VGND VPWR VPWR sky130_fd_sc_hd__decap_12
XFILLER_120_959 VGND VGND VPWR VPWR sky130_fd_sc_hd__decap_12
XFILLER_150_1422 VGND VGND VPWR VPWR sky130_fd_sc_hd__decap_12
XFILLER_8_1666 VGND VGND VPWR VPWR sky130_fd_sc_hd__decap_12
XFILLER_218_312 VGND VGND VPWR VPWR sky130_fd_sc_hd__decap_12
XFILLER_24_1447 VGND VGND VPWR VPWR sky130_fd_sc_hd__decap_12
XFILLER_4_1508 VGND VGND VPWR VPWR sky130_fd_sc_hd__decap_12
XFILLER_86_873 VGND VGND VPWR VPWR sky130_fd_sc_hd__decap_12
XPHY_5001 VGND VPWR sky130_fd_sc_hd__tapvpwrvgnd_1
XFILLER_46_715 VGND VGND VPWR VPWR sky130_fd_sc_hd__decap_12
XFILLER_73_501 VGND VGND VPWR VPWR sky130_fd_sc_hd__decap_12
XFILLER_273_440 VGND VGND VPWR VPWR sky130_fd_sc_hd__decap_12
XFILLER_246_654 VGND VGND VPWR VPWR sky130_fd_sc_hd__decap_12
XPHY_5012 VGND VPWR sky130_fd_sc_hd__tapvpwrvgnd_1
XFILLER_111_1428 VGND VGND VPWR VPWR sky130_fd_sc_hd__decap_12
XFILLER_219_879 VGND VGND VPWR VPWR sky130_fd_sc_hd__decap_12
XPHY_5023 VGND VPWR sky130_fd_sc_hd__tapvpwrvgnd_1
XFILLER_206_507 VGND VGND VPWR VPWR sky130_fd_sc_hd__decap_12
XPHY_5034 VGND VPWR sky130_fd_sc_hd__tapvpwrvgnd_1
XFILLER_280_93 VGND VGND VPWR VPWR sky130_fd_sc_hd__decap_12
XPHY_5045 VGND VPWR sky130_fd_sc_hd__tapvpwrvgnd_1
XFILLER_133_98 VGND VGND VPWR VPWR sky130_fd_sc_hd__decap_12
XPHY_4300 VGND VPWR sky130_fd_sc_hd__tapvpwrvgnd_1
XFILLER_172_3 VGND VGND VPWR VPWR sky130_fd_sc_hd__decap_12
XPHY_4311 VGND VPWR sky130_fd_sc_hd__tapvpwrvgnd_1
XFILLER_248_1239 VGND VGND VPWR VPWR sky130_fd_sc_hd__decap_12
XPHY_5056 VGND VPWR sky130_fd_sc_hd__tapvpwrvgnd_1
XFILLER_27_940 VGND VGND VPWR VPWR sky130_fd_sc_hd__decap_12
XFILLER_261_635 VGND VGND VPWR VPWR sky130_fd_sc_hd__decap_12
XFILLER_234_849 VGND VGND VPWR VPWR sky130_fd_sc_hd__decap_12
XPHY_5067 VGND VPWR sky130_fd_sc_hd__tapvpwrvgnd_1
XPHY_4322 VGND VPWR sky130_fd_sc_hd__tapvpwrvgnd_1
XPHY_5078 VGND VPWR sky130_fd_sc_hd__tapvpwrvgnd_1
XPHY_4333 VGND VPWR sky130_fd_sc_hd__tapvpwrvgnd_1
XFILLER_199_720 VGND VGND VPWR VPWR sky130_fd_sc_hd__decap_12
XPHY_5089 VGND VPWR sky130_fd_sc_hd__tapvpwrvgnd_1
XFILLER_45_269 VGND VGND VPWR VPWR sky130_fd_sc_hd__decap_12
XPHY_4344 VGND VPWR sky130_fd_sc_hd__tapvpwrvgnd_1
XPHY_3610 VGND VPWR sky130_fd_sc_hd__tapvpwrvgnd_1
XPHY_4355 VGND VPWR sky130_fd_sc_hd__tapvpwrvgnd_1
XFILLER_42_910 VGND VGND VPWR VPWR sky130_fd_sc_hd__decap_12
XPHY_3621 VGND VPWR sky130_fd_sc_hd__tapvpwrvgnd_1
XPHY_4366 VGND VPWR sky130_fd_sc_hd__tapvpwrvgnd_1
XFILLER_26_483 VGND VGND VPWR VPWR sky130_fd_sc_hd__decap_12
XFILLER_57_1245 VGND VGND VPWR VPWR sky130_fd_sc_hd__decap_12
XPHY_3632 VGND VPWR sky130_fd_sc_hd__tapvpwrvgnd_1
XPHY_4377 VGND VPWR sky130_fd_sc_hd__tapvpwrvgnd_1
XFILLER_60_239 VGND VGND VPWR VPWR sky130_fd_sc_hd__decap_12
XPHY_3643 VGND VPWR sky130_fd_sc_hd__tapvpwrvgnd_1
XPHY_4388 VGND VPWR sky130_fd_sc_hd__tapvpwrvgnd_1
XFILLER_261_1428 VGND VGND VPWR VPWR sky130_fd_sc_hd__decap_12
XFILLER_260_178 VGND VGND VPWR VPWR sky130_fd_sc_hd__decap_12
XPHY_3654 VGND VPWR sky130_fd_sc_hd__tapvpwrvgnd_1
XPHY_4399 VGND VPWR sky130_fd_sc_hd__tapvpwrvgnd_1
XFILLER_144_1215 VGND VGND VPWR VPWR sky130_fd_sc_hd__decap_12
XPHY_2920 VGND VPWR sky130_fd_sc_hd__tapvpwrvgnd_1
XPHY_3665 VGND VPWR sky130_fd_sc_hd__tapvpwrvgnd_1
XFILLER_198_263 VGND VGND VPWR VPWR sky130_fd_sc_hd__decap_12
XPHY_2931 VGND VPWR sky130_fd_sc_hd__tapvpwrvgnd_1
XPHY_3676 VGND VPWR sky130_fd_sc_hd__tapvpwrvgnd_1
XFILLER_158_105 VGND VGND VPWR VPWR sky130_fd_sc_hd__decap_12
XPHY_2942 VGND VPWR sky130_fd_sc_hd__tapvpwrvgnd_1
XFILLER_14_678 VGND VGND VPWR VPWR sky130_fd_sc_hd__decap_12
XFILLER_41_464 VGND VGND VPWR VPWR sky130_fd_sc_hd__decap_12
XPHY_3687 VGND VPWR sky130_fd_sc_hd__tapvpwrvgnd_1
XPHY_2953 VGND VPWR sky130_fd_sc_hd__tapvpwrvgnd_1
XPHY_3698 VGND VPWR sky130_fd_sc_hd__tapvpwrvgnd_1
XFILLER_201_245 VGND VGND VPWR VPWR sky130_fd_sc_hd__decap_12
XFILLER_74_1581 VGND VGND VPWR VPWR sky130_fd_sc_hd__decap_12
XPHY_2964 VGND VPWR sky130_fd_sc_hd__tapvpwrvgnd_1
XFILLER_109_1379 VGND VGND VPWR VPWR sky130_fd_sc_hd__decap_12
XPHY_2975 VGND VPWR sky130_fd_sc_hd__tapvpwrvgnd_1
XPHY_2986 VGND VPWR sky130_fd_sc_hd__tapvpwrvgnd_1
XFILLER_139_330 VGND VGND VPWR VPWR sky130_fd_sc_hd__decap_12
XFILLER_161_1562 VGND VGND VPWR VPWR sky130_fd_sc_hd__decap_12
XPHY_2997 VGND VPWR sky130_fd_sc_hd__tapvpwrvgnd_1
XFILLER_9_159 VGND VGND VPWR VPWR sky130_fd_sc_hd__decap_12
XFILLER_167_672 VGND VGND VPWR VPWR sky130_fd_sc_hd__decap_12
XFILLER_6_800 VGND VGND VPWR VPWR sky130_fd_sc_hd__decap_12
XFILLER_35_1587 VGND VGND VPWR VPWR sky130_fd_sc_hd__decap_12
XFILLER_154_300 VGND VGND VPWR VPWR sky130_fd_sc_hd__decap_12
XFILLER_122_1557 VGND VGND VPWR VPWR sky130_fd_sc_hd__decap_12
XFILLER_127_525 VGND VGND VPWR VPWR sky130_fd_sc_hd__decap_12
XFILLER_10_873 VGND VGND VPWR VPWR sky130_fd_sc_hd__decap_12
XFILLER_182_642 VGND VGND VPWR VPWR sky130_fd_sc_hd__decap_12
XFILLER_177_1013 VGND VGND VPWR VPWR sky130_fd_sc_hd__decap_12
XFILLER_202_1581 VGND VGND VPWR VPWR sky130_fd_sc_hd__decap_12
XFILLER_155_867 VGND VGND VPWR VPWR sky130_fd_sc_hd__decap_12
XFILLER_259_1379 VGND VGND VPWR VPWR sky130_fd_sc_hd__decap_12
XFILLER_237_1611 VGND VGND VPWR VPWR sky130_fd_sc_hd__decap_12
XFILLER_138_1008 VGND VGND VPWR VPWR sky130_fd_sc_hd__decap_12
XFILLER_170_837 VGND VGND VPWR VPWR sky130_fd_sc_hd__decap_12
XFILLER_123_720 VGND VGND VPWR VPWR sky130_fd_sc_hd__decap_12
XFILLER_218_1032 VGND VGND VPWR VPWR sky130_fd_sc_hd__decap_12
XFILLER_181_196 VGND VGND VPWR VPWR sky130_fd_sc_hd__decap_12
XFILLER_68_1374 VGND VGND VPWR VPWR sky130_fd_sc_hd__decap_12
XFILLER_107_293 VGND VGND VPWR VPWR sky130_fd_sc_hd__decap_12
XFILLER_272_1557 VGND VGND VPWR VPWR sky130_fd_sc_hd__decap_12
XFILLER_64_1227 VGND VGND VPWR VPWR sky130_fd_sc_hd__decap_12
XFILLER_269_757 VGND VGND VPWR VPWR sky130_fd_sc_hd__decap_12
XFILLER_155_1355 VGND VGND VPWR VPWR sky130_fd_sc_hd__decap_12
XFILLER_69_818 VGND VGND VPWR VPWR sky130_fd_sc_hd__decap_12
XFILLER_151_1208 VGND VGND VPWR VPWR sky130_fd_sc_hd__decap_12
XFILLER_122_263 VGND VGND VPWR VPWR sky130_fd_sc_hd__decap_12
XFILLER_3_56 VGND VGND VPWR VPWR sky130_fd_sc_hd__decap_4
XFILLER_284_727 VGND VGND VPWR VPWR sky130_fd_sc_hd__decap_12
XFILLER_231_1221 VGND VGND VPWR VPWR sky130_fd_sc_hd__decap_12
XFILLER_172_1691 VGND VGND VPWR VPWR sky130_fd_sc_hd__decap_12
XFILLER_81_1574 VGND VGND VPWR VPWR sky130_fd_sc_hd__decap_12
XFILLER_95_147 VGND VGND VPWR VPWR sky130_fd_sc_hd__decap_12
XFILLER_265_952 VGND VGND VPWR VPWR sky130_fd_sc_hd__decap_12
XFILLER_42_1569 VGND VGND VPWR VPWR sky130_fd_sc_hd__decap_12
XFILLER_76_361 VGND VGND VPWR VPWR sky130_fd_sc_hd__decap_12
XFILLER_3_1029 VGND VGND VPWR VPWR sky130_fd_sc_hd__decap_8
XFILLER_49_586 VGND VGND VPWR VPWR sky130_fd_sc_hd__decap_12
XFILLER_97_1025 VGND VGND VPWR VPWR sky130_fd_sc_hd__decap_12
XFILLER_209_367 VGND VGND VPWR VPWR sky130_fd_sc_hd__decap_12
XFILLER_190_93 VGND VGND VPWR VPWR sky130_fd_sc_hd__decap_12
XFILLER_188_1142 VGND VGND VPWR VPWR sky130_fd_sc_hd__decap_12
XFILLER_280_922 VGND VGND VPWR VPWR sky130_fd_sc_hd__decap_12
XPHY_6280 VGND VPWR sky130_fd_sc_hd__tapvpwrvgnd_1
XPHY_6291 VGND VPWR sky130_fd_sc_hd__tapvpwrvgnd_1
XFILLER_64_556 VGND VGND VPWR VPWR sky130_fd_sc_hd__decap_12
XFILLER_91_342 VGND VGND VPWR VPWR sky130_fd_sc_hd__decap_12
XFILLER_264_495 VGND VGND VPWR VPWR sky130_fd_sc_hd__decap_12
XFILLER_251_123 VGND VGND VPWR VPWR sky130_fd_sc_hd__decap_12
XFILLER_224_337 VGND VGND VPWR VPWR sky130_fd_sc_hd__decap_12
XFILLER_92_898 VGND VGND VPWR VPWR sky130_fd_sc_hd__decap_12
XPHY_5590 VGND VPWR sky130_fd_sc_hd__tapvpwrvgnd_1
XFILLER_18_995 VGND VGND VPWR VPWR sky130_fd_sc_hd__decap_12
XFILLER_45_781 VGND VGND VPWR VPWR sky130_fd_sc_hd__decap_12
XFILLER_229_1172 VGND VGND VPWR VPWR sky130_fd_sc_hd__decap_12
XFILLER_205_562 VGND VGND VPWR VPWR sky130_fd_sc_hd__decap_12
XFILLER_269_39 VGND VGND VPWR VPWR sky130_fd_sc_hd__decap_12
XFILLER_225_1025 VGND VGND VPWR VPWR sky130_fd_sc_hd__decap_12
XFILLER_177_403 VGND VGND VPWR VPWR sky130_fd_sc_hd__decap_12
XFILLER_60_751 VGND VGND VPWR VPWR sky130_fd_sc_hd__decap_12
XFILLER_75_1367 VGND VGND VPWR VPWR sky130_fd_sc_hd__decap_12
XFILLER_260_690 VGND VGND VPWR VPWR sky130_fd_sc_hd__decap_12
XFILLER_220_532 VGND VGND VPWR VPWR sky130_fd_sc_hd__decap_12
XFILLER_162_1337 VGND VGND VPWR VPWR sky130_fd_sc_hd__decap_12
XFILLER_178_959 VGND VGND VPWR VPWR sky130_fd_sc_hd__decap_12
XFILLER_34_1020 VGND VGND VPWR VPWR sky130_fd_sc_hd__decap_12
XFILLER_242_1361 VGND VGND VPWR VPWR sky130_fd_sc_hd__decap_12
XFILLER_14_1605 VGND VGND VPWR VPWR sky130_fd_sc_hd__decap_12
XFILLER_121_1001 VGND VGND VPWR VPWR sky130_fd_sc_hd__decap_12
XFILLER_146_812 VGND VGND VPWR VPWR sky130_fd_sc_hd__decap_12
X_0985_ _1002_/CLK _1162_/Y VGND VGND VPWR VPWR io_out[28] sky130_fd_sc_hd__dfxtp_4
XFILLER_285_27 VGND VGND VPWR VPWR sky130_fd_sc_hd__decap_4
XFILLER_203_1367 VGND VGND VPWR VPWR sky130_fd_sc_hd__decap_12
XFILLER_157_171 VGND VGND VPWR VPWR sky130_fd_sc_hd__decap_12
XFILLER_140_1679 VGND VGND VPWR VPWR sky130_fd_sc_hd__decap_12
XFILLER_199_1282 VGND VGND VPWR VPWR sky130_fd_sc_hd__decap_12
XFILLER_218_32 VGND VGND VPWR VPWR sky130_fd_sc_hd__decap_12
XFILLER_195_1135 VGND VGND VPWR VPWR sky130_fd_sc_hd__decap_12
XFILLER_175_1709 VGND VGND VPWR VPWR sky130_fd_sc_hd__decap_3
XFILLER_172_141 VGND VGND VPWR VPWR sky130_fd_sc_hd__decap_12
XFILLER_105_208 VGND VGND VPWR VPWR sky130_fd_sc_hd__decap_12
XFILLER_271_1001 VGND VGND VPWR VPWR sky130_fd_sc_hd__decap_12
XFILLER_138_1520 VGND VGND VPWR VPWR sky130_fd_sc_hd__decap_12
XFILLER_236_1154 VGND VGND VPWR VPWR sky130_fd_sc_hd__decap_12
XFILLER_141_550 VGND VGND VPWR VPWR sky130_fd_sc_hd__decap_12
XFILLER_86_1496 VGND VGND VPWR VPWR sky130_fd_sc_hd__decap_12
XFILLER_114_764 VGND VGND VPWR VPWR sky130_fd_sc_hd__decap_12
XFILLER_99_464 VGND VGND VPWR VPWR sky130_fd_sc_hd__decap_12
XPHY_7909 VGND VPWR sky130_fd_sc_hd__tapvpwrvgnd_1
XFILLER_259_245 VGND VGND VPWR VPWR sky130_fd_sc_hd__decap_12
XFILLER_59_306 VGND VGND VPWR VPWR sky130_fd_sc_hd__decap_12
XFILLER_82_1349 VGND VGND VPWR VPWR sky130_fd_sc_hd__decap_12
XFILLER_173_1477 VGND VGND VPWR VPWR sky130_fd_sc_hd__decap_12
XFILLER_101_403 VGND VGND VPWR VPWR sky130_fd_sc_hd__decap_12
XFILLER_87_659 VGND VGND VPWR VPWR sky130_fd_sc_hd__decap_12
XFILLER_102_959 VGND VGND VPWR VPWR sky130_fd_sc_hd__decap_12
XFILLER_274_215 VGND VGND VPWR VPWR sky130_fd_sc_hd__decap_12
XFILLER_45_1160 VGND VGND VPWR VPWR sky130_fd_sc_hd__decap_12
XFILLER_41_1013 VGND VGND VPWR VPWR sky130_fd_sc_hd__decap_12
XFILLER_132_1130 VGND VGND VPWR VPWR sky130_fd_sc_hd__decap_12
XFILLER_68_873 VGND VGND VPWR VPWR sky130_fd_sc_hd__decap_12
XFILLER_228_654 VGND VGND VPWR VPWR sky130_fd_sc_hd__decap_12
XFILLER_214_1496 VGND VGND VPWR VPWR sky130_fd_sc_hd__decap_12
XFILLER_28_715 VGND VGND VPWR VPWR sky130_fd_sc_hd__decap_12
XFILLER_55_501 VGND VGND VPWR VPWR sky130_fd_sc_hd__decap_12
XFILLER_255_440 VGND VGND VPWR VPWR sky130_fd_sc_hd__decap_12
XFILLER_249_1526 VGND VGND VPWR VPWR sky130_fd_sc_hd__decap_12
XFILLER_210_1349 VGND VGND VPWR VPWR sky130_fd_sc_hd__decap_12
XFILLER_270_410 VGND VGND VPWR VPWR sky130_fd_sc_hd__decap_12
XFILLER_216_849 VGND VGND VPWR VPWR sky130_fd_sc_hd__decap_12
XFILLER_243_635 VGND VGND VPWR VPWR sky130_fd_sc_hd__decap_12
XFILLER_27_269 VGND VGND VPWR VPWR sky130_fd_sc_hd__decap_12
XFILLER_271_977 VGND VGND VPWR VPWR sky130_fd_sc_hd__decap_12
XFILLER_24_910 VGND VGND VPWR VPWR sky130_fd_sc_hd__decap_12
XFILLER_58_1532 VGND VGND VPWR VPWR sky130_fd_sc_hd__decap_12
XFILLER_110_1483 VGND VGND VPWR VPWR sky130_fd_sc_hd__decap_12
XFILLER_149_1660 VGND VGND VPWR VPWR sky130_fd_sc_hd__decap_12
XFILLER_63_39 VGND VGND VPWR VPWR sky130_fd_sc_hd__decap_12
XFILLER_242_178 VGND VGND VPWR VPWR sky130_fd_sc_hd__decap_12
XFILLER_145_1513 VGND VGND VPWR VPWR sky130_fd_sc_hd__decap_12
XPHY_905 VGND VPWR sky130_fd_sc_hd__tapvpwrvgnd_1
XFILLER_42_239 VGND VGND VPWR VPWR sky130_fd_sc_hd__decap_12
XPHY_2205 VGND VPWR sky130_fd_sc_hd__tapvpwrvgnd_1
XFILLER_179_39 VGND VGND VPWR VPWR sky130_fd_sc_hd__decap_12
XPHY_916 VGND VPWR sky130_fd_sc_hd__tapvpwrvgnd_1
XPHY_2216 VGND VPWR sky130_fd_sc_hd__tapvpwrvgnd_1
XFILLER_282_1174 VGND VGND VPWR VPWR sky130_fd_sc_hd__decap_12
XFILLER_247_1294 VGND VGND VPWR VPWR sky130_fd_sc_hd__decap_12
XPHY_927 VGND VPWR sky130_fd_sc_hd__tapvpwrvgnd_1
XFILLER_19_1538 VGND VGND VPWR VPWR sky130_fd_sc_hd__decap_12
XPHY_938 VGND VPWR sky130_fd_sc_hd__tapvpwrvgnd_1
XPHY_2227 VGND VPWR sky130_fd_sc_hd__tapvpwrvgnd_1
XPHY_949 VGND VPWR sky130_fd_sc_hd__tapvpwrvgnd_1
XPHY_2238 VGND VPWR sky130_fd_sc_hd__tapvpwrvgnd_1
XFILLER_243_1147 VGND VGND VPWR VPWR sky130_fd_sc_hd__decap_12
XPHY_1504 VGND VPWR sky130_fd_sc_hd__tapvpwrvgnd_1
XFILLER_23_464 VGND VGND VPWR VPWR sky130_fd_sc_hd__decap_12
XPHY_2249 VGND VPWR sky130_fd_sc_hd__tapvpwrvgnd_1
XFILLER_93_1489 VGND VGND VPWR VPWR sky130_fd_sc_hd__decap_12
XFILLER_106_1508 VGND VGND VPWR VPWR sky130_fd_sc_hd__decap_12
XPHY_1515 VGND VPWR sky130_fd_sc_hd__tapvpwrvgnd_1
XFILLER_180_1459 VGND VGND VPWR VPWR sky130_fd_sc_hd__decap_12
XPHY_1526 VGND VPWR sky130_fd_sc_hd__tapvpwrvgnd_1
XPHY_1537 VGND VPWR sky130_fd_sc_hd__tapvpwrvgnd_1
XPHY_1548 VGND VPWR sky130_fd_sc_hd__tapvpwrvgnd_1
XFILLER_11_659 VGND VGND VPWR VPWR sky130_fd_sc_hd__decap_12
XPHY_1559 VGND VPWR sky130_fd_sc_hd__tapvpwrvgnd_1
XFILLER_52_1142 VGND VGND VPWR VPWR sky130_fd_sc_hd__decap_12
XFILLER_260_1483 VGND VGND VPWR VPWR sky130_fd_sc_hd__decap_12
XFILLER_211_598 VGND VGND VPWR VPWR sky130_fd_sc_hd__decap_12
XFILLER_183_428 VGND VGND VPWR VPWR sky130_fd_sc_hd__decap_12
XFILLER_149_672 VGND VGND VPWR VPWR sky130_fd_sc_hd__decap_12
XFILLER_195_27 VGND VGND VPWR VPWR sky130_fd_sc_hd__decap_12
XFILLER_136_300 VGND VGND VPWR VPWR sky130_fd_sc_hd__decap_12
XFILLER_178_1300 VGND VGND VPWR VPWR sky130_fd_sc_hd__decap_12
XFILLER_109_525 VGND VGND VPWR VPWR sky130_fd_sc_hd__decap_12
XFILLER_12_32 VGND VGND VPWR VPWR sky130_fd_sc_hd__decap_12
XFILLER_6_129 VGND VGND VPWR VPWR sky130_fd_sc_hd__fill_2
XFILLER_221_1489 VGND VGND VPWR VPWR sky130_fd_sc_hd__decap_12
XFILLER_164_642 VGND VGND VPWR VPWR sky130_fd_sc_hd__decap_12
XFILLER_104_1276 VGND VGND VPWR VPWR sky130_fd_sc_hd__decap_12
XFILLER_256_1508 VGND VGND VPWR VPWR sky130_fd_sc_hd__decap_12
XFILLER_128_32 VGND VGND VPWR VPWR sky130_fd_sc_hd__decap_12
XFILLER_137_867 VGND VGND VPWR VPWR sky130_fd_sc_hd__decap_12
XFILLER_139_1306 VGND VGND VPWR VPWR sky130_fd_sc_hd__decap_12